Version 4
SHEET 1 1000 1000
SYMBOL Misc\EuropeanResistor 344 16 R90
SYMATTR InstName R0
WIRE 248 32 240 32
WIRE 328 32 400 32
SYMBOL Misc\EuropeanResistor 384 40 R0
SYMATTR InstName R1
WIRE 400 56 400 32
WIRE 400 136 400 160
SYMBOL Misc\EuropeanResistor 192 184 R0
SYMATTR InstName R2
WIRE 208 200 208 160
WIRE 208 280 208 320
SYMBOL Misc\EuropeanResistor 192 312 R0
SYMATTR InstName R3
WIRE 208 328 208 320
WIRE 208 408 208 400
SYMBOL ind 664 144 R90
SYMATTR InstName L0
WIRE 568 160 528 160
WIRE 648 160 688 160
SYMBOL Misc\EuropeanResistor 512 168 R0
SYMATTR InstName R4
WIRE 528 184 528 160
WIRE 528 264 528 320
SYMBOL Misc\EuropeanResistor 248 16 R90
SYMATTR InstName R5
WIRE 152 32 80 32
WIRE 232 32 240 32
SYMBOL Misc\EuropeanResistor 400 312 R0
SYMATTR InstName R6
WIRE 416 328 416 304
WIRE 416 408 416 400
FLAG 208 432 0
WIRE 208 432 208 400
FLAG 80 448 0
WIRE 80 448 80 272
FLAG 688 304 0
WIRE 688 304 688 256
FLAG 416 432 0
WIRE 416 432 416 400
FLAG 528 416 0
WIRE 528 416 528 384
SYMBOL cap 352 304 R90
SYMATTR InstName C0
WIRE 288 320 208 320
WIRE 352 320 416 320
SYMBOL cap 400 192 R0
SYMATTR InstName C1
WIRE 416 192 400 160
WIRE 416 256 416 320
SYMBOL cap 672 176 R0
SYMATTR InstName C2
WIRE 688 176 688 160
WIRE 688 240 688 256
SYMBOL cap 512 320 R0
SYMATTR InstName C3
WIRE 528 320 528 320
WIRE 528 384 528 384
WIRE 352 160 352 144
WIRE 352 144 336 144
WIRE 336 144 272 144
WIRE 272 144 272 160
WIRE 272 160 208 160
WIRE 272 160 272 176
WIRE 272 176 352 176
WIRE 352 160 352 176
WIRE 528 320 416 320
WIRE 352 160 400 160
WIRE 528 160 400 160
WIRE 80 32 80 176
WIRE 80 176 80 272
WIRE 80 176 80 272
WIRE 80 176 80 272
