Version 4
SHEET 1 1000 1000
SYMBOL Misc\EuropeanResistor 344 64 R90
SYMATTR InstName R0
WIRE 248 80 96 80
WIRE 328 80 400 80
SYMBOL ind 384 120 R0
SYMATTR InstName L0
WIRE 400 136 400 256
WIRE 400 216 400 80
SYMBOL cap 560 144 R0
SYMATTR InstName C0
WIRE 576 144 576 80
WIRE 576 208 576 248
FLAG 400 336 0
WIRE 400 336 400 256
FLAG 96 368 0
WIRE 96 368 96 288
FLAG 576 320 0
WIRE 576 320 576 248
SYMBOL voltage 96 152 R0
SYMATTR InstName R0
WIRE 96 168 96 80
WIRE 96 248 96 288
WIRE 400 80 576 80
