Version 4
SHEET 1 1000 1000
SYMBOL Misc\EuropeanResistor 256 72 R0
SYMATTR InstName R0
WIRE 272 88 272 16
WIRE 272 168 272 192
SYMBOL Misc\EuropeanResistor 16 56 R0
SYMATTR InstName R1
WIRE 32 72 32 16
WIRE 32 152 32 192
FLAG 240 224 0
WIRE 240 224 240 192
SYMBOL cap 160 80 R0
SYMATTR InstName C0
WIRE 176 80 176 16
WIRE 176 144 176 192
SYMBOL Misc\EuropeanResistor 152 176 R90
SYMATTR InstName R2
WIRE 56 192 32 192
WIRE 136 192 176 192
WIRE 272 192 240 192
WIRE 240 192 176 192
WIRE 176 16 160 16
WIRE 160 16 160 16
WIRE 160 16 32 16
WIRE 160 16 176 16
WIRE 176 16 176 16
WIRE 272 16 176 16
