Version 4
SHEET 1 1000 1000
SYMBOL Misc\EuropeanResistor 16 56 R0
SYMATTR InstName R0
WIRE 32 72 32 32
WIRE 32 152 32 208
FLAG 240 240 0
WIRE 240 240 240 208
SYMBOL cap 160 96 R0
SYMATTR InstName C0
WIRE 176 96 176 32
WIRE 176 160 176 208
SYMBOL Misc\EuropeanResistor 168 192 R90
SYMATTR InstName R1
WIRE 72 208 32 208
WIRE 152 208 176 208
WIRE 32 16 32 16
WIRE 288 32 288 112
WIRE 288 112 272 112
WIRE 272 112 272 160
WIRE 272 160 272 160
WIRE 272 160 288 160
WIRE 288 160 304 160
WIRE 304 160 304 112
WIRE 288 112 304 112
WIRE 288 160 288 208
WIRE 288 208 240 208
WIRE 240 208 176 208
WIRE 176 32 176 32
WIRE 176 32 176 32
WIRE 176 32 32 32
WIRE 176 32 176 32
WIRE 176 32 176 32
WIRE 288 32 176 32
