Version 4
SHEET 1 1000 1000
SYMBOL Misc\EuropeanResistor 328 16 R90
SYMATTR InstName R0
WIRE 232 32 168 32
WIRE 312 32 368 32
SYMBOL ind 352 88 R0
SYMATTR InstName L0
WIRE 368 104 368 224
WIRE 368 184 368 32
SYMBOL cap 528 96 R0
SYMATTR InstName C0
WIRE 544 96 544 32
WIRE 544 160 544 208
FLAG 368 304 0
WIRE 368 304 368 224
FLAG 64 336 0
WIRE 64 336 64 184
FLAG 544 288 0
WIRE 544 288 544 208
SYMBOL voltage 64 -24 R0
SYMATTR InstName R0
WIRE 64 -8 168 32
WIRE 64 72 64 184
WIRE 368 32 544 32
