Version 4
SHEET 1 1000 1000
SYMBOL Misc\EuropeanResistor 688 184 R0
SYMATTR InstName R0
WIRE 704 200 704 80
WIRE 704 280 704 368
SYMBOL Misc\EuropeanResistor 432 152 R0
SYMATTR InstName R1
WIRE 448 168 448 80
WIRE 448 248 448 368
SYMBOL voltage 112 168 R0
SYMATTR InstName R0
WIRE 112 184 112 80
WIRE 112 264 112 368
WIRE 448 80 704 80
WIRE 704 368 448 368
WIRE 448 368 112 368
WIRE 448 80 112 80
