Version 4
SHEET 1 1000 1000
SYMBOL Misc\EuropeanResistor 296 0 R90
SYMATTR InstName R0
WIRE 200 16 192 16
WIRE 280 16 320 16
SYMBOL cap 304 48 R0
SYMATTR InstName C0
WIRE 320 48 320 16
WIRE 320 112 320 160
SYMBOL ind 312 144 R90
SYMATTR InstName L0
WIRE 216 160 160 160
WIRE 296 160 320 160
SYMBOL Misc\EuropeanResistor 160 248 R0
SYMATTR InstName R1
WIRE 176 264 176 256
WIRE 176 344 176 328
SYMBOL ind 552 144 R90
SYMATTR InstName L1
WIRE 456 160 432 160
WIRE 536 160 560 160
SYMBOL Misc\EuropeanResistor 416 120 R0
SYMATTR InstName R2
WIRE 432 136 432 160
WIRE 432 216 432 256
SYMBOL Misc\EuropeanResistor 320 248 R0
SYMATTR InstName R3
WIRE 336 264 336 256
WIRE 336 344 336 328
SYMBOL Misc\EuropeanResistor 200 0 R90
SYMATTR InstName R4
WIRE 104 16 64 16
WIRE 184 16 192 16
FLAG 176 352 0
WIRE 176 352 176 328
FLAG 336 352 0
WIRE 336 352 336 328
FLAG 64 368 0
WIRE 64 368 64 272
FLAG 560 256 0
WIRE 560 256 560 216
SYMBOL cap 288 240 R90
SYMATTR InstName C1
WIRE 224 256 176 256
WIRE 288 256 336 256
SYMBOL cap 320 160 R0
SYMATTR InstName C2
WIRE 336 160 320 160
WIRE 336 224 336 256
SYMBOL cap 544 144 R0
SYMATTR InstName C3
WIRE 560 144 560 160
WIRE 560 208 560 216
SYMBOL Misc\EuropeanResistor 48 120 R0
SYMATTR InstName R5
WIRE 64 136 64 16
WIRE 64 216 64 272
WIRE 160 160 192 160
WIRE 192 160 192 224
WIRE 192 224 176 224
WIRE 176 224 160 224
WIRE 160 224 160 160
WIRE 192 160 160 160
WIRE 176 224 176 256
WIRE 432 160 320 160
WIRE 432 256 336 256
