Version 4
SHEET 1 1000 1000
SYMBOL Misc\EuropeanResistor 344 48 R90
SYMATTR InstName R0
WIRE 248 64 80 64
WIRE 328 64 400 64
SYMBOL ind 384 120 R0
SYMATTR InstName L0
WIRE 400 136 400 256
WIRE 400 216 400 64
SYMBOL cap 544 128 R0
SYMATTR InstName C0
WIRE 560 128 560 64
WIRE 560 192 560 240
FLAG 400 336 0
WIRE 400 336 400 256
FLAG 80 368 0
WIRE 80 368 80 288
FLAG 560 320 0
WIRE 560 320 560 240
SYMBOL voltage 80 152 R0
SYMATTR InstName R0
WIRE 80 168 80 64
WIRE 80 248 80 288
WIRE 400 64 560 64
