Version 4
SHEET 1 1000 1000
SYMBOL Misc\EuropeanResistor 328 48 R90
SYMATTR InstName R0
WIRE 232 64 64 64
WIRE 312 64 384 64
SYMBOL ind 368 104 R0
SYMATTR InstName L0
WIRE 384 120 384 240
WIRE 384 200 384 64
SYMBOL cap 528 112 R0
SYMATTR InstName C0
WIRE 544 112 544 64
WIRE 544 176 544 224
FLAG 384 320 0
WIRE 384 320 384 240
FLAG 64 352 0
WIRE 64 352 64 272
FLAG 544 304 0
WIRE 544 304 544 224
SYMBOL voltage 64 136 R0
SYMATTR InstName R0
WIRE 64 152 64 64
WIRE 64 232 64 272
WIRE 384 64 544 64
