Version 4
SHEET 1 1000 1000
SYMBOL Misc\EuropeanResistor 400 120 R0
SYMATTR InstName R0
WIRE 416 136 416 32
WIRE 416 216 416 304
SYMBOL Misc\EuropeanResistor 32 104 R0
SYMATTR InstName R1
WIRE 48 120 48 32
WIRE 48 200 48 304
FLAG 368 352 0
WIRE 368 352 368 304
SYMBOL cap 240 144 R0
SYMATTR InstName C0
WIRE 256 144 256 32
WIRE 256 208 256 304
SYMBOL Misc\EuropeanResistor 144 248 R0
SYMATTR InstName R2
WIRE 160 264 48 304
WIRE 160 344 256 304
WIRE 416 304 368 304
WIRE 368 304 256 304
WIRE 256 32 256 32
WIRE 256 32 256 32
WIRE 256 32 48 32
WIRE 256 32 256 32
WIRE 256 32 256 32
WIRE 416 32 256 32
