Version 4
SHEET 1 1000 1000
SYMBOL Misc\EuropeanResistor 360 48 R90
SYMATTR InstName R0
WIRE 264 64 96 64
WIRE 344 64 416 64
SYMBOL ind 400 120 R0
SYMATTR InstName L0
WIRE 416 136 416 64
WIRE 416 216 416 248
FLAG 416 320 0
WIRE 416 320 416 248
FLAG 96 352 0
WIRE 96 352 96 272
FLAG 592 320 0
WIRE 592 320 592 240
SYMBOL cap 576 128 R0
SYMATTR InstName C0
WIRE 592 128 592 64
WIRE 592 192 592 240
SYMBOL voltage 96 248 R0
SYMATTR InstName R0
WIRE 96 152 96 64
WIRE 96 232 96 272
WIRE 416 64 592 64
