Version 4
SHEET 1 1000 1000
SYMBOL Misc\EuropeanResistor 386 302 R90
WIRE 290 318 231 318
WIRE 370 318 423 318
SYMBOL cap 679 192 R0
WIRE 695 192 695 183
WIRE 695 256 695 271
SYMBOL cap 407 207 R0
WIRE 423 207 408 183
WIRE 423 271 423 318
SYMBOL Misc\EuropeanResistor 513 308 R0
WIRE 529 324 529 318
WIRE 529 404 529 393
SYMBOL Misc\EuropeanResistor 392 40 R0
WIRE 408 56 408 35
WIRE 408 136 408 183
SYMBOL Misc\EuropeanResistor 372 167 R90
WIRE 276 183 231 183
WIRE 356 183 408 183
SYMBOL Misc\EuropeanResistor 215 190 R0
WIRE 231 206 231 183
WIRE 231 286 231 318
SYMBOL Misc\EuropeanResistor 215 326 R0
WIRE 231 342 231 318
WIRE 231 422 231 414
SYMBOL Misc\EuropeanResistor 667 167 R90
WIRE 571 183 529 183
WIRE 651 183 695 183
SYMBOL Misc\EuropeanResistor 513 172 R0
WIRE 529 188 529 183
WIRE 529 268 529 318
SYMBOL Misc\EuropeanResistor 407 316 R0
WIRE 423 332 423 318
WIRE 423 412 423 403
FLAG 94 454 0
WIRE 94 454 94 280
FLAG 231 446 0
WIRE 231 446 231 382
FLAG 423 434 0
WIRE 423 434 423 372
FLAG 695 318 0
WIRE 695 318 695 224
FLAG 529 422 0
WIRE 529 422 529 364
WIRE 408 35 94 35
WIRE 94 35 94 186
WIRE 94 186 94 280
WIRE 94 186 94 280
WIRE 94 186 94 280
WIRE 529 183 408 183
WIRE 529 318 423 318
